*SPEF "ieee 1481-1999"
*DESIGN "alu_top"
*DATE "11:11:11 Fri 11 11, 1111"
*VENDOR "OpenRCX"
*PROGRAM "Parallel Extraction"
*VERSION "1.0"
*DESIGN_FLOW "NAME_SCOPE LOCAL" "PIN_CAP NONE"
*DIVIDER /
*DELIMITER :
*BUS_DELIMITER []
*T_UNIT 1 NS
*C_UNIT 1 PF
*R_UNIT 1 OHM
*L_UNIT 1 HENRY

*NAME_MAP
*1 io_in[0]
*2 io_in[1]
*3 io_in[2]
*4 io_in[3]
*5 io_in[4]
*6 io_in[5]
*7 io_in[6]
*8 io_in[7]
*9 io_out[0]
*10 io_out[1]
*11 io_out[2]
*12 io_out[3]
*13 io_out[4]
*14 io_out[5]
*15 io_out[6]
*16 net12
*19 _000_
*20 _001_
*21 _002_
*22 _003_
*23 _004_
*24 _005_
*25 _006_
*26 _007_
*27 _008_
*28 _009_
*29 _010_
*30 _011_
*31 _012_
*32 _013_
*33 _014_
*34 _015_
*35 _016_
*36 _017_
*37 _018_
*38 _019_
*39 _020_
*40 _021_
*41 _022_
*42 _023_
*43 _024_
*44 _025_
*45 _026_
*46 _027_
*47 _028_
*48 _029_
*49 _030_
*50 _031_
*51 _032_
*52 _033_
*53 _034_
*54 _035_
*55 _036_
*56 _037_
*57 _038_
*58 _039_
*59 _040_
*60 _041_
*61 _042_
*62 _043_
*63 _044_
*64 _045_
*65 _046_
*66 _047_
*67 _048_
*68 _049_
*69 _050_
*70 _051_
*71 _052_
*72 _053_
*73 _054_
*74 _055_
*75 _056_
*76 _057_
*77 _058_
*78 _059_
*79 _060_
*80 _061_
*81 _062_
*82 _063_
*83 _064_
*84 _065_
*85 _066_
*86 _067_
*87 _068_
*88 _069_
*89 _070_
*90 _071_
*91 _072_
*92 _073_
*93 _074_
*94 _075_
*95 _076_
*96 _077_
*97 _078_
*98 _079_
*99 _080_
*100 _081_
*101 _082_
*102 _083_
*103 _084_
*104 _085_
*105 _086_
*106 _087_
*107 _088_
*108 _089_
*109 _090_
*110 _091_
*111 _092_
*112 _093_
*113 _094_
*114 _095_
*115 _096_
*116 _097_
*117 _098_
*118 _099_
*119 _100_
*120 _101_
*121 _102_
*122 _103_
*123 _104_
*124 _105_
*125 _106_
*126 _107_
*127 _108_
*128 _109_
*129 _110_
*130 _111_
*131 _112_
*132 _113_
*133 _114_
*134 _115_
*135 _116_
*136 _117_
*137 _118_
*138 _119_
*139 _120_
*140 _121_
*141 _122_
*142 _123_
*143 _124_
*144 _125_
*145 _126_
*146 _127_
*147 _128_
*148 _129_
*149 _130_
*150 _131_
*151 _132_
*152 _133_
*153 _134_
*154 _135_
*155 _136_
*156 _137_
*157 _138_
*158 _139_
*159 _140_
*160 _141_
*161 _142_
*162 _143_
*163 _144_
*164 _145_
*165 _146_
*166 _147_
*167 alu\.fsm0\.gnt_0
*168 alu\.fsm0\.gnt_1
*169 alu\.fsm0\.state\[0\]
*170 alu\.fsm0\.state\[1\]
*171 alu\.fsm0\.state\[2\]
*172 alu\.fsm1\.gnt_0
*173 alu\.fsm1\.gnt_1
*174 alu\.fsm1\.state\[0\]
*175 alu\.fsm1\.state\[2\]
*176 clknet_0__010_
*177 clknet_0__032_
*178 clknet_0__033_
*179 clknet_0__034_
*180 clknet_0__040_
*181 clknet_0__057_
*182 clknet_0__060_
*183 clknet_0__067_
*184 clknet_0__068_
*185 clknet_0__105_
*186 clknet_0__106_
*187 clknet_0__115_
*188 clknet_0__117_
*189 clknet_0__129_
*190 clknet_0__131_
*191 clknet_0__138_
*192 clknet_0__141_
*193 clknet_0_io_in[0]
*194 clknet_1_0__leaf__010_
*195 clknet_1_0__leaf__032_
*196 clknet_1_0__leaf__033_
*197 clknet_1_0__leaf__034_
*198 clknet_1_0__leaf__040_
*199 clknet_1_0__leaf__057_
*200 clknet_1_0__leaf__060_
*201 clknet_1_0__leaf__067_
*202 clknet_1_0__leaf__068_
*203 clknet_1_0__leaf__105_
*204 clknet_1_0__leaf__106_
*205 clknet_1_0__leaf__115_
*206 clknet_1_0__leaf__117_
*207 clknet_1_0__leaf__129_
*208 clknet_1_0__leaf__131_
*209 clknet_1_0__leaf__138_
*210 clknet_1_0__leaf__141_
*211 clknet_1_0__leaf_io_in[0]
*212 clknet_1_1__leaf__010_
*213 clknet_1_1__leaf__032_
*214 clknet_1_1__leaf__033_
*215 clknet_1_1__leaf__034_
*216 clknet_1_1__leaf__040_
*217 clknet_1_1__leaf__057_
*218 clknet_1_1__leaf__060_
*219 clknet_1_1__leaf__067_
*220 clknet_1_1__leaf__068_
*221 clknet_1_1__leaf__105_
*222 clknet_1_1__leaf__106_
*223 clknet_1_1__leaf__115_
*224 clknet_1_1__leaf__117_
*225 clknet_1_1__leaf__129_
*226 clknet_1_1__leaf__131_
*227 clknet_1_1__leaf__138_
*228 clknet_1_1__leaf__141_
*229 clknet_1_1__leaf_io_in[0]
*230 net1
*231 net10
*232 net11
*233 net2
*234 net3
*235 net4
*236 net5
*237 net6
*238 net7
*239 net8
*240 net9
*241 ANTENNA_0
*242 ANTENNA_1
*243 ANTENNA_2
*244 ANTENNA_3
*245 ANTENNA_4
*246 FILLER_0_109
*247 FILLER_0_113
*248 FILLER_0_125
*249 FILLER_0_137
*250 FILLER_0_141
*251 FILLER_0_15
*252 FILLER_0_153
*253 FILLER_0_165
*254 FILLER_0_169
*255 FILLER_0_181
*256 FILLER_0_193
*257 FILLER_0_197
*258 FILLER_0_209
*259 FILLER_0_221
*260 FILLER_0_225
*261 FILLER_0_237
*262 FILLER_0_249
*263 FILLER_0_253
*264 FILLER_0_265
*265 FILLER_0_27
*266 FILLER_0_277
*267 FILLER_0_281
*268 FILLER_0_29
*269 FILLER_0_293
*270 FILLER_0_3
*271 FILLER_0_41
*272 FILLER_0_53
*273 FILLER_0_57
*274 FILLER_0_69
*275 FILLER_0_81
*276 FILLER_0_85
*277 FILLER_0_97
*278 FILLER_10_109
*279 FILLER_10_121
*280 FILLER_10_133
*281 FILLER_10_139
*282 FILLER_10_141
*283 FILLER_10_15
*284 FILLER_10_153
*285 FILLER_10_165
*286 FILLER_10_177
*287 FILLER_10_189
*288 FILLER_10_195
*289 FILLER_10_197
*290 FILLER_10_209
*291 FILLER_10_221
*292 FILLER_10_233
*293 FILLER_10_245
*294 FILLER_10_251
*295 FILLER_10_253
*296 FILLER_10_265
*297 FILLER_10_27
*298 FILLER_10_277
*299 FILLER_10_289
*300 FILLER_10_29
*301 FILLER_10_297
*302 FILLER_10_3
*303 FILLER_10_41
*304 FILLER_10_53
*305 FILLER_10_65
*306 FILLER_10_77
*307 FILLER_10_83
*308 FILLER_10_85
*309 FILLER_10_97
*310 FILLER_11_105
*311 FILLER_11_111
*312 FILLER_11_113
*313 FILLER_11_125
*314 FILLER_11_137
*315 FILLER_11_149
*316 FILLER_11_15
*317 FILLER_11_161
*318 FILLER_11_167
*319 FILLER_11_169
*320 FILLER_11_181
*321 FILLER_11_193
*322 FILLER_11_205
*323 FILLER_11_217
*324 FILLER_11_223
*325 FILLER_11_225
*326 FILLER_11_237
*327 FILLER_11_249
*328 FILLER_11_261
*329 FILLER_11_27
*330 FILLER_11_273
*331 FILLER_11_279
*332 FILLER_11_281
*333 FILLER_11_293
*334 FILLER_11_3
*335 FILLER_11_39
*336 FILLER_11_51
*337 FILLER_11_55
*338 FILLER_11_57
*339 FILLER_11_69
*340 FILLER_11_81
*341 FILLER_11_93
*342 FILLER_12_109
*343 FILLER_12_121
*344 FILLER_12_133
*345 FILLER_12_139
*346 FILLER_12_141
*347 FILLER_12_15
*348 FILLER_12_153
*349 FILLER_12_165
*350 FILLER_12_177
*351 FILLER_12_189
*352 FILLER_12_195
*353 FILLER_12_197
*354 FILLER_12_209
*355 FILLER_12_221
*356 FILLER_12_233
*357 FILLER_12_245
*358 FILLER_12_251
*359 FILLER_12_253
*360 FILLER_12_265
*361 FILLER_12_27
*362 FILLER_12_277
*363 FILLER_12_289
*364 FILLER_12_29
*365 FILLER_12_297
*366 FILLER_12_3
*367 FILLER_12_41
*368 FILLER_12_53
*369 FILLER_12_65
*370 FILLER_12_77
*371 FILLER_12_83
*372 FILLER_12_85
*373 FILLER_12_97
*374 FILLER_13_105
*375 FILLER_13_111
*376 FILLER_13_113
*377 FILLER_13_125
*378 FILLER_13_137
*379 FILLER_13_149
*380 FILLER_13_15
*381 FILLER_13_161
*382 FILLER_13_167
*383 FILLER_13_169
*384 FILLER_13_181
*385 FILLER_13_193
*386 FILLER_13_205
*387 FILLER_13_217
*388 FILLER_13_223
*389 FILLER_13_225
*390 FILLER_13_237
*391 FILLER_13_249
*392 FILLER_13_261
*393 FILLER_13_27
*394 FILLER_13_273
*395 FILLER_13_279
*396 FILLER_13_281
*397 FILLER_13_293
*398 FILLER_13_3
*399 FILLER_13_39
*400 FILLER_13_51
*401 FILLER_13_55
*402 FILLER_13_57
*403 FILLER_13_69
*404 FILLER_13_81
*405 FILLER_13_93
*406 FILLER_14_109
*407 FILLER_14_121
*408 FILLER_14_133
*409 FILLER_14_139
*410 FILLER_14_141
*411 FILLER_14_15
*412 FILLER_14_153
*413 FILLER_14_165
*414 FILLER_14_177
*415 FILLER_14_189
*416 FILLER_14_195
*417 FILLER_14_197
*418 FILLER_14_209
*419 FILLER_14_221
*420 FILLER_14_233
*421 FILLER_14_245
*422 FILLER_14_251
*423 FILLER_14_253
*424 FILLER_14_265
*425 FILLER_14_27
*426 FILLER_14_277
*427 FILLER_14_289
*428 FILLER_14_29
*429 FILLER_14_297
*430 FILLER_14_3
*431 FILLER_14_41
*432 FILLER_14_53
*433 FILLER_14_65
*434 FILLER_14_77
*435 FILLER_14_83
*436 FILLER_14_85
*437 FILLER_14_97
*438 FILLER_15_105
*439 FILLER_15_111
*440 FILLER_15_113
*441 FILLER_15_125
*442 FILLER_15_137
*443 FILLER_15_149
*444 FILLER_15_15
*445 FILLER_15_161
*446 FILLER_15_167
*447 FILLER_15_169
*448 FILLER_15_181
*449 FILLER_15_193
*450 FILLER_15_205
*451 FILLER_15_217
*452 FILLER_15_223
*453 FILLER_15_225
*454 FILLER_15_237
*455 FILLER_15_249
*456 FILLER_15_261
*457 FILLER_15_27
*458 FILLER_15_273
*459 FILLER_15_279
*460 FILLER_15_281
*461 FILLER_15_293
*462 FILLER_15_3
*463 FILLER_15_39
*464 FILLER_15_51
*465 FILLER_15_55
*466 FILLER_15_57
*467 FILLER_15_69
*468 FILLER_15_81
*469 FILLER_15_93
*470 FILLER_16_109
*471 FILLER_16_121
*472 FILLER_16_133
*473 FILLER_16_139
*474 FILLER_16_141
*475 FILLER_16_15
*476 FILLER_16_153
*477 FILLER_16_165
*478 FILLER_16_177
*479 FILLER_16_189
*480 FILLER_16_195
*481 FILLER_16_197
*482 FILLER_16_209
*483 FILLER_16_221
*484 FILLER_16_233
*485 FILLER_16_245
*486 FILLER_16_251
*487 FILLER_16_253
*488 FILLER_16_265
*489 FILLER_16_27
*490 FILLER_16_277
*491 FILLER_16_289
*492 FILLER_16_29
*493 FILLER_16_297
*494 FILLER_16_3
*495 FILLER_16_41
*496 FILLER_16_53
*497 FILLER_16_65
*498 FILLER_16_77
*499 FILLER_16_83
*500 FILLER_16_85
*501 FILLER_16_97
*502 FILLER_17_105
*503 FILLER_17_111
*504 FILLER_17_113
*505 FILLER_17_125
*506 FILLER_17_137
*507 FILLER_17_149
*508 FILLER_17_15
*509 FILLER_17_161
*510 FILLER_17_167
*511 FILLER_17_169
*512 FILLER_17_181
*513 FILLER_17_193
*514 FILLER_17_205
*515 FILLER_17_217
*516 FILLER_17_223
*517 FILLER_17_225
*518 FILLER_17_237
*519 FILLER_17_249
*520 FILLER_17_261
*521 FILLER_17_27
*522 FILLER_17_273
*523 FILLER_17_279
*524 FILLER_17_281
*525 FILLER_17_293
*526 FILLER_17_3
*527 FILLER_17_39
*528 FILLER_17_51
*529 FILLER_17_55
*530 FILLER_17_57
*531 FILLER_17_69
*532 FILLER_17_81
*533 FILLER_17_93
*534 FILLER_18_109
*535 FILLER_18_121
*536 FILLER_18_133
*537 FILLER_18_139
*538 FILLER_18_141
*539 FILLER_18_15
*540 FILLER_18_153
*541 FILLER_18_165
*542 FILLER_18_177
*543 FILLER_18_189
*544 FILLER_18_195
*545 FILLER_18_197
*546 FILLER_18_209
*547 FILLER_18_221
*548 FILLER_18_233
*549 FILLER_18_245
*550 FILLER_18_251
*551 FILLER_18_253
*552 FILLER_18_265
*553 FILLER_18_27
*554 FILLER_18_277
*555 FILLER_18_289
*556 FILLER_18_29
*557 FILLER_18_297
*558 FILLER_18_3
*559 FILLER_18_41
*560 FILLER_18_53
*561 FILLER_18_65
*562 FILLER_18_77
*563 FILLER_18_83
*564 FILLER_18_85
*565 FILLER_18_97
*566 FILLER_19_105
*567 FILLER_19_111
*568 FILLER_19_113
*569 FILLER_19_125
*570 FILLER_19_137
*571 FILLER_19_149
*572 FILLER_19_15
*573 FILLER_19_161
*574 FILLER_19_167
*575 FILLER_19_169
*576 FILLER_19_181
*577 FILLER_19_193
*578 FILLER_19_205
*579 FILLER_19_217
*580 FILLER_19_223
*581 FILLER_19_225
*582 FILLER_19_237
*583 FILLER_19_249
*584 FILLER_19_261
*585 FILLER_19_27
*586 FILLER_19_273
*587 FILLER_19_279
*588 FILLER_19_281
*589 FILLER_19_293
*590 FILLER_19_3
*591 FILLER_19_39
*592 FILLER_19_51
*593 FILLER_19_55
*594 FILLER_19_57
*595 FILLER_19_69
*596 FILLER_19_81
*597 FILLER_19_93
*598 FILLER_1_105
*599 FILLER_1_111
*600 FILLER_1_113
*601 FILLER_1_125
*602 FILLER_1_137
*603 FILLER_1_149
*604 FILLER_1_15
*605 FILLER_1_161
*606 FILLER_1_167
*607 FILLER_1_169
*608 FILLER_1_181
*609 FILLER_1_193
*610 FILLER_1_205
*611 FILLER_1_217
*612 FILLER_1_223
*613 FILLER_1_225
*614 FILLER_1_237
*615 FILLER_1_249
*616 FILLER_1_261
*617 FILLER_1_27
*618 FILLER_1_273
*619 FILLER_1_279
*620 FILLER_1_281
*621 FILLER_1_293
*622 FILLER_1_3
*623 FILLER_1_39
*624 FILLER_1_51
*625 FILLER_1_55
*626 FILLER_1_57
*627 FILLER_1_69
*628 FILLER_1_81
*629 FILLER_1_93
*630 FILLER_20_109
*631 FILLER_20_121
*632 FILLER_20_133
*633 FILLER_20_139
*634 FILLER_20_141
*635 FILLER_20_15
*636 FILLER_20_153
*637 FILLER_20_165
*638 FILLER_20_177
*639 FILLER_20_189
*640 FILLER_20_195
*641 FILLER_20_197
*642 FILLER_20_209
*643 FILLER_20_221
*644 FILLER_20_233
*645 FILLER_20_245
*646 FILLER_20_251
*647 FILLER_20_253
*648 FILLER_20_265
*649 FILLER_20_27
*650 FILLER_20_277
*651 FILLER_20_289
*652 FILLER_20_29
*653 FILLER_20_297
*654 FILLER_20_3
*655 FILLER_20_41
*656 FILLER_20_53
*657 FILLER_20_65
*658 FILLER_20_77
*659 FILLER_20_83
*660 FILLER_20_85
*661 FILLER_20_97
*662 FILLER_21_105
*663 FILLER_21_111
*664 FILLER_21_113
*665 FILLER_21_125
*666 FILLER_21_137
*667 FILLER_21_149
*668 FILLER_21_15
*669 FILLER_21_161
*670 FILLER_21_167
*671 FILLER_21_169
*672 FILLER_21_181
*673 FILLER_21_193
*674 FILLER_21_205
*675 FILLER_21_217
*676 FILLER_21_223
*677 FILLER_21_225
*678 FILLER_21_237
*679 FILLER_21_249
*680 FILLER_21_261
*681 FILLER_21_27
*682 FILLER_21_273
*683 FILLER_21_279
*684 FILLER_21_281
*685 FILLER_21_293
*686 FILLER_21_3
*687 FILLER_21_39
*688 FILLER_21_51
*689 FILLER_21_55
*690 FILLER_21_57
*691 FILLER_21_69
*692 FILLER_21_81
*693 FILLER_21_93
*694 FILLER_22_109
*695 FILLER_22_121
*696 FILLER_22_133
*697 FILLER_22_139
*698 FILLER_22_141
*699 FILLER_22_15
*700 FILLER_22_153
*701 FILLER_22_165
*702 FILLER_22_177
*703 FILLER_22_189
*704 FILLER_22_195
*705 FILLER_22_197
*706 FILLER_22_209
*707 FILLER_22_221
*708 FILLER_22_233
*709 FILLER_22_245
*710 FILLER_22_251
*711 FILLER_22_253
*712 FILLER_22_265
*713 FILLER_22_27
*714 FILLER_22_277
*715 FILLER_22_289
*716 FILLER_22_29
*717 FILLER_22_297
*718 FILLER_22_3
*719 FILLER_22_41
*720 FILLER_22_53
*721 FILLER_22_65
*722 FILLER_22_77
*723 FILLER_22_83
*724 FILLER_22_85
*725 FILLER_22_97
*726 FILLER_23_105
*727 FILLER_23_111
*728 FILLER_23_113
*729 FILLER_23_125
*730 FILLER_23_137
*731 FILLER_23_149
*732 FILLER_23_15
*733 FILLER_23_161
*734 FILLER_23_167
*735 FILLER_23_169
*736 FILLER_23_181
*737 FILLER_23_193
*738 FILLER_23_205
*739 FILLER_23_217
*740 FILLER_23_223
*741 FILLER_23_225
*742 FILLER_23_237
*743 FILLER_23_249
*744 FILLER_23_261
*745 FILLER_23_27
*746 FILLER_23_273
*747 FILLER_23_279
*748 FILLER_23_281
*749 FILLER_23_293
*750 FILLER_23_3
*751 FILLER_23_39
*752 FILLER_23_51
*753 FILLER_23_55
*754 FILLER_23_57
*755 FILLER_23_69
*756 FILLER_23_81
*757 FILLER_23_93
*758 FILLER_24_109
*759 FILLER_24_121
*760 FILLER_24_133
*761 FILLER_24_139
*762 FILLER_24_141
*763 FILLER_24_15
*764 FILLER_24_153
*765 FILLER_24_165
*766 FILLER_24_177
*767 FILLER_24_189
*768 FILLER_24_195
*769 FILLER_24_197
*770 FILLER_24_209
*771 FILLER_24_221
*772 FILLER_24_233
*773 FILLER_24_245
*774 FILLER_24_251
*775 FILLER_24_253
*776 FILLER_24_265
*777 FILLER_24_27
*778 FILLER_24_277
*779 FILLER_24_289
*780 FILLER_24_29
*781 FILLER_24_297
*782 FILLER_24_3
*783 FILLER_24_41
*784 FILLER_24_53
*785 FILLER_24_65
*786 FILLER_24_77
*787 FILLER_24_83
*788 FILLER_24_85
*789 FILLER_24_97
*790 FILLER_25_105
*791 FILLER_25_111
*792 FILLER_25_113
*793 FILLER_25_125
*794 FILLER_25_137
*795 FILLER_25_149
*796 FILLER_25_15
*797 FILLER_25_161
*798 FILLER_25_167
*799 FILLER_25_169
*800 FILLER_25_181
*801 FILLER_25_193
*802 FILLER_25_205
*803 FILLER_25_217
*804 FILLER_25_223
*805 FILLER_25_225
*806 FILLER_25_237
*807 FILLER_25_249
*808 FILLER_25_261
*809 FILLER_25_27
*810 FILLER_25_273
*811 FILLER_25_279
*812 FILLER_25_281
*813 FILLER_25_293
*814 FILLER_25_3
*815 FILLER_25_39
*816 FILLER_25_51
*817 FILLER_25_55
*818 FILLER_25_57
*819 FILLER_25_69
*820 FILLER_25_81
*821 FILLER_25_93
*822 FILLER_26_109
*823 FILLER_26_121
*824 FILLER_26_133
*825 FILLER_26_139
*826 FILLER_26_141
*827 FILLER_26_15
*828 FILLER_26_153
*829 FILLER_26_165
*830 FILLER_26_177
*831 FILLER_26_189
*832 FILLER_26_195
*833 FILLER_26_197
*834 FILLER_26_209
*835 FILLER_26_221
*836 FILLER_26_233
*837 FILLER_26_245
*838 FILLER_26_251
*839 FILLER_26_253
*840 FILLER_26_265
*841 FILLER_26_27
*842 FILLER_26_277
*843 FILLER_26_289
*844 FILLER_26_29
*845 FILLER_26_297
*846 FILLER_26_3
*847 FILLER_26_41
*848 FILLER_26_53
*849 FILLER_26_65
*850 FILLER_26_77
*851 FILLER_26_83
*852 FILLER_26_85
*853 FILLER_26_97
*854 FILLER_27_105
*855 FILLER_27_111
*856 FILLER_27_113
*857 FILLER_27_125
*858 FILLER_27_137
*859 FILLER_27_149
*860 FILLER_27_15
*861 FILLER_27_161
*862 FILLER_27_167
*863 FILLER_27_169
*864 FILLER_27_181
*865 FILLER_27_193
*866 FILLER_27_205
*867 FILLER_27_217
*868 FILLER_27_223
*869 FILLER_27_225
*870 FILLER_27_237
*871 FILLER_27_249
*872 FILLER_27_261
*873 FILLER_27_27
*874 FILLER_27_273
*875 FILLER_27_279
*876 FILLER_27_281
*877 FILLER_27_293
*878 FILLER_27_3
*879 FILLER_27_39
*880 FILLER_27_51
*881 FILLER_27_55
*882 FILLER_27_57
*883 FILLER_27_69
*884 FILLER_27_81
*885 FILLER_27_93
*886 FILLER_28_109
*887 FILLER_28_121
*888 FILLER_28_133
*889 FILLER_28_139
*890 FILLER_28_141
*891 FILLER_28_15
*892 FILLER_28_153
*893 FILLER_28_165
*894 FILLER_28_177
*895 FILLER_28_189
*896 FILLER_28_195
*897 FILLER_28_197
*898 FILLER_28_209
*899 FILLER_28_221
*900 FILLER_28_233
*901 FILLER_28_245
*902 FILLER_28_251
*903 FILLER_28_253
*904 FILLER_28_265
*905 FILLER_28_27
*906 FILLER_28_277
*907 FILLER_28_289
*908 FILLER_28_29
*909 FILLER_28_297
*910 FILLER_28_3
*911 FILLER_28_41
*912 FILLER_28_53
*913 FILLER_28_65
*914 FILLER_28_77
*915 FILLER_28_83
*916 FILLER_28_85
*917 FILLER_28_97
*918 FILLER_29_105
*919 FILLER_29_111
*920 FILLER_29_113
*921 FILLER_29_125
*922 FILLER_29_137
*923 FILLER_29_149
*924 FILLER_29_15
*925 FILLER_29_161
*926 FILLER_29_167
*927 FILLER_29_169
*928 FILLER_29_181
*929 FILLER_29_193
*930 FILLER_29_205
*931 FILLER_29_217
*932 FILLER_29_223
*933 FILLER_29_225
*934 FILLER_29_237
*935 FILLER_29_249
*936 FILLER_29_261
*937 FILLER_29_27
*938 FILLER_29_273
*939 FILLER_29_279
*940 FILLER_29_281
*941 FILLER_29_293
*942 FILLER_29_3
*943 FILLER_29_39
*944 FILLER_29_51
*945 FILLER_29_55
*946 FILLER_29_57
*947 FILLER_29_69
*948 FILLER_29_81
*949 FILLER_29_93
*950 FILLER_2_109
*951 FILLER_2_121
*952 FILLER_2_133
*953 FILLER_2_139
*954 FILLER_2_141
*955 FILLER_2_15
*956 FILLER_2_153
*957 FILLER_2_165
*958 FILLER_2_177
*959 FILLER_2_189
*960 FILLER_2_195
*961 FILLER_2_197
*962 FILLER_2_209
*963 FILLER_2_221
*964 FILLER_2_233
*965 FILLER_2_245
*966 FILLER_2_251
*967 FILLER_2_253
*968 FILLER_2_265
*969 FILLER_2_27
*970 FILLER_2_277
*971 FILLER_2_289
*972 FILLER_2_29
*973 FILLER_2_297
*974 FILLER_2_3
*975 FILLER_2_41
*976 FILLER_2_53
*977 FILLER_2_65
*978 FILLER_2_77
*979 FILLER_2_83
*980 FILLER_2_85
*981 FILLER_2_97
*982 FILLER_30_109
*983 FILLER_30_121
*984 FILLER_30_133
*985 FILLER_30_139
*986 FILLER_30_141
*987 FILLER_30_15
*988 FILLER_30_153
*989 FILLER_30_165
*990 FILLER_30_177
*991 FILLER_30_189
*992 FILLER_30_195
*993 FILLER_30_197
*994 FILLER_30_209
*995 FILLER_30_221
*996 FILLER_30_233
*997 FILLER_30_245
*998 FILLER_30_251
*999 FILLER_30_253
*1000 FILLER_30_265
*1001 FILLER_30_27
*1002 FILLER_30_277
*1003 FILLER_30_289
*1004 FILLER_30_29
*1005 FILLER_30_297
*1006 FILLER_30_3
*1007 FILLER_30_41
*1008 FILLER_30_53
*1009 FILLER_30_65
*1010 FILLER_30_77
*1011 FILLER_30_83
*1012 FILLER_30_85
*1013 FILLER_30_97
*1014 FILLER_31_105
*1015 FILLER_31_111
*1016 FILLER_31_113
*1017 FILLER_31_125
*1018 FILLER_31_137
*1019 FILLER_31_149
*1020 FILLER_31_15
*1021 FILLER_31_161
*1022 FILLER_31_167
*1023 FILLER_31_169
*1024 FILLER_31_181
*1025 FILLER_31_193
*1026 FILLER_31_205
*1027 FILLER_31_217
*1028 FILLER_31_223
*1029 FILLER_31_225
*1030 FILLER_31_237
*1031 FILLER_31_249
*1032 FILLER_31_261
*1033 FILLER_31_27
*1034 FILLER_31_273
*1035 FILLER_31_279
*1036 FILLER_31_281
*1037 FILLER_31_293
*1038 FILLER_31_3
*1039 FILLER_31_39
*1040 FILLER_31_51
*1041 FILLER_31_55
*1042 FILLER_31_57
*1043 FILLER_31_69
*1044 FILLER_31_81
*1045 FILLER_31_93
*1046 FILLER_32_109
*1047 FILLER_32_121
*1048 FILLER_32_133
*1049 FILLER_32_139
*1050 FILLER_32_141
*1051 FILLER_32_15
*1052 FILLER_32_153
*1053 FILLER_32_165
*1054 FILLER_32_177
*1055 FILLER_32_189
*1056 FILLER_32_195
*1057 FILLER_32_197
*1058 FILLER_32_209
*1059 FILLER_32_221
*1060 FILLER_32_233
*1061 FILLER_32_245
*1062 FILLER_32_251
*1063 FILLER_32_253
*1064 FILLER_32_265
*1065 FILLER_32_27
*1066 FILLER_32_277
*1067 FILLER_32_289
*1068 FILLER_32_29
*1069 FILLER_32_297
*1070 FILLER_32_3
*1071 FILLER_32_41
*1072 FILLER_32_53
*1073 FILLER_32_65
*1074 FILLER_32_77
*1075 FILLER_32_83
*1076 FILLER_32_85
*1077 FILLER_32_97
*1078 FILLER_33_105
*1079 FILLER_33_111
*1080 FILLER_33_113
*1081 FILLER_33_125
*1082 FILLER_33_137
*1083 FILLER_33_149
*1084 FILLER_33_15
*1085 FILLER_33_161
*1086 FILLER_33_167
*1087 FILLER_33_169
*1088 FILLER_33_181
*1089 FILLER_33_193
*1090 FILLER_33_205
*1091 FILLER_33_217
*1092 FILLER_33_223
*1093 FILLER_33_225
*1094 FILLER_33_237
*1095 FILLER_33_249
*1096 FILLER_33_261
*1097 FILLER_33_27
*1098 FILLER_33_273
*1099 FILLER_33_279
*1100 FILLER_33_281
*1101 FILLER_33_293
*1102 FILLER_33_3
*1103 FILLER_33_39
*1104 FILLER_33_51
*1105 FILLER_33_55
*1106 FILLER_33_57
*1107 FILLER_33_69
*1108 FILLER_33_81
*1109 FILLER_33_93
*1110 FILLER_34_109
*1111 FILLER_34_121
*1112 FILLER_34_133
*1113 FILLER_34_139
*1114 FILLER_34_141
*1115 FILLER_34_15
*1116 FILLER_34_153
*1117 FILLER_34_165
*1118 FILLER_34_177
*1119 FILLER_34_189
*1120 FILLER_34_195
*1121 FILLER_34_197
*1122 FILLER_34_209
*1123 FILLER_34_221
*1124 FILLER_34_233
*1125 FILLER_34_245
*1126 FILLER_34_251
*1127 FILLER_34_253
*1128 FILLER_34_265
*1129 FILLER_34_27
*1130 FILLER_34_277
*1131 FILLER_34_289
*1132 FILLER_34_29
*1133 FILLER_34_297
*1134 FILLER_34_3
*1135 FILLER_34_41
*1136 FILLER_34_53
*1137 FILLER_34_65
*1138 FILLER_34_77
*1139 FILLER_34_83
*1140 FILLER_34_85
*1141 FILLER_34_97
*1142 FILLER_35_105
*1143 FILLER_35_111
*1144 FILLER_35_113
*1145 FILLER_35_125
*1146 FILLER_35_137
*1147 FILLER_35_149
*1148 FILLER_35_15
*1149 FILLER_35_161
*1150 FILLER_35_167
*1151 FILLER_35_169
*1152 FILLER_35_181
*1153 FILLER_35_193
*1154 FILLER_35_205
*1155 FILLER_35_217
*1156 FILLER_35_223
*1157 FILLER_35_225
*1158 FILLER_35_237
*1159 FILLER_35_249
*1160 FILLER_35_261
*1161 FILLER_35_27
*1162 FILLER_35_273
*1163 FILLER_35_279
*1164 FILLER_35_281
*1165 FILLER_35_293
*1166 FILLER_35_3
*1167 FILLER_35_39
*1168 FILLER_35_51
*1169 FILLER_35_55
*1170 FILLER_35_57
*1171 FILLER_35_69
*1172 FILLER_35_81
*1173 FILLER_35_93
*1174 FILLER_36_109
*1175 FILLER_36_121
*1176 FILLER_36_133
*1177 FILLER_36_139
*1178 FILLER_36_141
*1179 FILLER_36_15
*1180 FILLER_36_153
*1181 FILLER_36_165
*1182 FILLER_36_177
*1183 FILLER_36_189
*1184 FILLER_36_195
*1185 FILLER_36_197
*1186 FILLER_36_209
*1187 FILLER_36_221
*1188 FILLER_36_233
*1189 FILLER_36_245
*1190 FILLER_36_251
*1191 FILLER_36_253
*1192 FILLER_36_265
*1193 FILLER_36_27
*1194 FILLER_36_277
*1195 FILLER_36_289
*1196 FILLER_36_29
*1197 FILLER_36_297
*1198 FILLER_36_3
*1199 FILLER_36_41
*1200 FILLER_36_53
*1201 FILLER_36_65
*1202 FILLER_36_77
*1203 FILLER_36_83
*1204 FILLER_36_85
*1205 FILLER_36_97
*1206 FILLER_37_105
*1207 FILLER_37_111
*1208 FILLER_37_113
*1209 FILLER_37_125
*1210 FILLER_37_137
*1211 FILLER_37_149
*1212 FILLER_37_15
*1213 FILLER_37_161
*1214 FILLER_37_167
*1215 FILLER_37_169
*1216 FILLER_37_181
*1217 FILLER_37_193
*1218 FILLER_37_205
*1219 FILLER_37_217
*1220 FILLER_37_223
*1221 FILLER_37_225
*1222 FILLER_37_237
*1223 FILLER_37_249
*1224 FILLER_37_261
*1225 FILLER_37_27
*1226 FILLER_37_273
*1227 FILLER_37_279
*1228 FILLER_37_281
*1229 FILLER_37_293
*1230 FILLER_37_3
*1231 FILLER_37_39
*1232 FILLER_37_51
*1233 FILLER_37_55
*1234 FILLER_37_57
*1235 FILLER_37_69
*1236 FILLER_37_81
*1237 FILLER_37_93
*1238 FILLER_38_109
*1239 FILLER_38_121
*1240 FILLER_38_133
*1241 FILLER_38_139
*1242 FILLER_38_141
*1243 FILLER_38_15
*1244 FILLER_38_153
*1245 FILLER_38_165
*1246 FILLER_38_177
*1247 FILLER_38_189
*1248 FILLER_38_195
*1249 FILLER_38_197
*1250 FILLER_38_209
*1251 FILLER_38_221
*1252 FILLER_38_233
*1253 FILLER_38_245
*1254 FILLER_38_251
*1255 FILLER_38_253
*1256 FILLER_38_265
*1257 FILLER_38_27
*1258 FILLER_38_277
*1259 FILLER_38_289
*1260 FILLER_38_29
*1261 FILLER_38_297
*1262 FILLER_38_3
*1263 FILLER_38_41
*1264 FILLER_38_53
*1265 FILLER_38_65
*1266 FILLER_38_77
*1267 FILLER_38_83
*1268 FILLER_38_85
*1269 FILLER_38_97
*1270 FILLER_39_105
*1271 FILLER_39_111
*1272 FILLER_39_113
*1273 FILLER_39_125
*1274 FILLER_39_137
*1275 FILLER_39_149
*1276 FILLER_39_15
*1277 FILLER_39_161
*1278 FILLER_39_167
*1279 FILLER_39_169
*1280 FILLER_39_181
*1281 FILLER_39_193
*1282 FILLER_39_205
*1283 FILLER_39_217
*1284 FILLER_39_223
*1285 FILLER_39_225
*1286 FILLER_39_237
*1287 FILLER_39_249
*1288 FILLER_39_261
*1289 FILLER_39_27
*1290 FILLER_39_273
*1291 FILLER_39_279
*1292 FILLER_39_281
*1293 FILLER_39_293
*1294 FILLER_39_3
*1295 FILLER_39_39
*1296 FILLER_39_51
*1297 FILLER_39_55
*1298 FILLER_39_57
*1299 FILLER_39_69
*1300 FILLER_39_81
*1301 FILLER_39_93
*1302 FILLER_3_105
*1303 FILLER_3_111
*1304 FILLER_3_113
*1305 FILLER_3_125
*1306 FILLER_3_137
*1307 FILLER_3_149
*1308 FILLER_3_15
*1309 FILLER_3_161
*1310 FILLER_3_167
*1311 FILLER_3_169
*1312 FILLER_3_181
*1313 FILLER_3_193
*1314 FILLER_3_205
*1315 FILLER_3_217
*1316 FILLER_3_223
*1317 FILLER_3_225
*1318 FILLER_3_237
*1319 FILLER_3_249
*1320 FILLER_3_261
*1321 FILLER_3_27
*1322 FILLER_3_273
*1323 FILLER_3_279
*1324 FILLER_3_281
*1325 FILLER_3_293
*1326 FILLER_3_3
*1327 FILLER_3_39
*1328 FILLER_3_51
*1329 FILLER_3_55
*1330 FILLER_3_57
*1331 FILLER_3_69
*1332 FILLER_3_81
*1333 FILLER_3_93
*1334 FILLER_40_109
*1335 FILLER_40_121
*1336 FILLER_40_133
*1337 FILLER_40_139
*1338 FILLER_40_141
*1339 FILLER_40_15
*1340 FILLER_40_153
*1341 FILLER_40_165
*1342 FILLER_40_177
*1343 FILLER_40_189
*1344 FILLER_40_195
*1345 FILLER_40_197
*1346 FILLER_40_209
*1347 FILLER_40_221
*1348 FILLER_40_233
*1349 FILLER_40_245
*1350 FILLER_40_251
*1351 FILLER_40_253
*1352 FILLER_40_265
*1353 FILLER_40_27
*1354 FILLER_40_277
*1355 FILLER_40_289
*1356 FILLER_40_29
*1357 FILLER_40_297
*1358 FILLER_40_3
*1359 FILLER_40_41
*1360 FILLER_40_53
*1361 FILLER_40_65
*1362 FILLER_40_77
*1363 FILLER_40_83
*1364 FILLER_40_85
*1365 FILLER_40_97
*1366 FILLER_41_105
*1367 FILLER_41_111
*1368 FILLER_41_113
*1369 FILLER_41_125
*1370 FILLER_41_133
*1371 FILLER_41_139
*1372 FILLER_41_15
*1373 FILLER_41_151
*1374 FILLER_41_163
*1375 FILLER_41_167
*1376 FILLER_41_169
*1377 FILLER_41_181
*1378 FILLER_41_193
*1379 FILLER_41_205
*1380 FILLER_41_217
*1381 FILLER_41_223
*1382 FILLER_41_225
*1383 FILLER_41_237
*1384 FILLER_41_249
*1385 FILLER_41_261
*1386 FILLER_41_27
*1387 FILLER_41_273
*1388 FILLER_41_279
*1389 FILLER_41_281
*1390 FILLER_41_293
*1391 FILLER_41_3
*1392 FILLER_41_39
*1393 FILLER_41_51
*1394 FILLER_41_55
*1395 FILLER_41_57
*1396 FILLER_41_69
*1397 FILLER_41_81
*1398 FILLER_41_93
*1399 FILLER_42_109
*1400 FILLER_42_121
*1401 FILLER_42_136
*1402 FILLER_42_144
*1403 FILLER_42_148
*1404 FILLER_42_15
*1405 FILLER_42_152
*1406 FILLER_42_160
*1407 FILLER_42_166
*1408 FILLER_42_173
*1409 FILLER_42_185
*1410 FILLER_42_193
*1411 FILLER_42_197
*1412 FILLER_42_209
*1413 FILLER_42_221
*1414 FILLER_42_233
*1415 FILLER_42_245
*1416 FILLER_42_251
*1417 FILLER_42_253
*1418 FILLER_42_265
*1419 FILLER_42_27
*1420 FILLER_42_277
*1421 FILLER_42_289
*1422 FILLER_42_29
*1423 FILLER_42_297
*1424 FILLER_42_3
*1425 FILLER_42_41
*1426 FILLER_42_53
*1427 FILLER_42_65
*1428 FILLER_42_77
*1429 FILLER_42_83
*1430 FILLER_42_85
*1431 FILLER_42_97
*1432 FILLER_43_105
*1433 FILLER_43_111
*1434 FILLER_43_113
*1435 FILLER_43_117
*1436 FILLER_43_124
*1437 FILLER_43_134
*1438 FILLER_43_140
*1439 FILLER_43_147
*1440 FILLER_43_15
*1441 FILLER_43_157
*1442 FILLER_43_164
*1443 FILLER_43_174
*1444 FILLER_43_181
*1445 FILLER_43_193
*1446 FILLER_43_205
*1447 FILLER_43_217
*1448 FILLER_43_223
*1449 FILLER_43_225
*1450 FILLER_43_237
*1451 FILLER_43_249
*1452 FILLER_43_261
*1453 FILLER_43_27
*1454 FILLER_43_273
*1455 FILLER_43_279
*1456 FILLER_43_281
*1457 FILLER_43_293
*1458 FILLER_43_3
*1459 FILLER_43_39
*1460 FILLER_43_51
*1461 FILLER_43_55
*1462 FILLER_43_57
*1463 FILLER_43_69
*1464 FILLER_43_81
*1465 FILLER_43_93
*1466 FILLER_44_104
*1467 FILLER_44_112
*1468 FILLER_44_118
*1469 FILLER_44_125
*1470 FILLER_44_136
*1471 FILLER_44_141
*1472 FILLER_44_15
*1473 FILLER_44_153
*1474 FILLER_44_157
*1475 FILLER_44_178
*1476 FILLER_44_187
*1477 FILLER_44_195
*1478 FILLER_44_200
*1479 FILLER_44_212
*1480 FILLER_44_224
*1481 FILLER_44_236
*1482 FILLER_44_248
*1483 FILLER_44_253
*1484 FILLER_44_265
*1485 FILLER_44_27
*1486 FILLER_44_277
*1487 FILLER_44_289
*1488 FILLER_44_29
*1489 FILLER_44_297
*1490 FILLER_44_3
*1491 FILLER_44_41
*1492 FILLER_44_53
*1493 FILLER_44_65
*1494 FILLER_44_77
*1495 FILLER_44_83
*1496 FILLER_44_88
*1497 FILLER_44_92
*1498 FILLER_44_96
*1499 FILLER_45_108
*1500 FILLER_45_113
*1501 FILLER_45_117
*1502 FILLER_45_125
*1503 FILLER_45_149
*1504 FILLER_45_15
*1505 FILLER_45_160
*1506 FILLER_45_169
*1507 FILLER_45_177
*1508 FILLER_45_185
*1509 FILLER_45_194
*1510 FILLER_45_202
*1511 FILLER_45_209
*1512 FILLER_45_221
*1513 FILLER_45_225
*1514 FILLER_45_237
*1515 FILLER_45_249
*1516 FILLER_45_261
*1517 FILLER_45_27
*1518 FILLER_45_273
*1519 FILLER_45_279
*1520 FILLER_45_281
*1521 FILLER_45_293
*1522 FILLER_45_3
*1523 FILLER_45_39
*1524 FILLER_45_51
*1525 FILLER_45_55
*1526 FILLER_45_57
*1527 FILLER_45_69
*1528 FILLER_45_77
*1529 FILLER_45_86
*1530 FILLER_45_90
*1531 FILLER_45_97
*1532 FILLER_46_121
*1533 FILLER_46_133
*1534 FILLER_46_139
*1535 FILLER_46_149
*1536 FILLER_46_15
*1537 FILLER_46_157
*1538 FILLER_46_178
*1539 FILLER_46_188
*1540 FILLER_46_202
*1541 FILLER_46_209
*1542 FILLER_46_216
*1543 FILLER_46_228
*1544 FILLER_46_240
*1545 FILLER_46_253
*1546 FILLER_46_265
*1547 FILLER_46_27
*1548 FILLER_46_277
*1549 FILLER_46_289
*1550 FILLER_46_29
*1551 FILLER_46_297
*1552 FILLER_46_3
*1553 FILLER_46_41
*1554 FILLER_46_53
*1555 FILLER_46_59
*1556 FILLER_46_63
*1557 FILLER_46_71
*1558 FILLER_46_80
*1559 FILLER_46_85
*1560 FILLER_46_89
*1561 FILLER_46_97
*1562 FILLER_47_108
*1563 FILLER_47_120
*1564 FILLER_47_140
*1565 FILLER_47_15
*1566 FILLER_47_152
*1567 FILLER_47_163
*1568 FILLER_47_167
*1569 FILLER_47_176
*1570 FILLER_47_187
*1571 FILLER_47_198
*1572 FILLER_47_208
*1573 FILLER_47_216
*1574 FILLER_47_228
*1575 FILLER_47_240
*1576 FILLER_47_252
*1577 FILLER_47_264
*1578 FILLER_47_27
*1579 FILLER_47_276
*1580 FILLER_47_281
*1581 FILLER_47_293
*1582 FILLER_47_3
*1583 FILLER_47_39
*1584 FILLER_47_51
*1585 FILLER_47_55
*1586 FILLER_47_57
*1587 FILLER_47_64
*1588 FILLER_47_74
*1589 FILLER_47_84
*1590 FILLER_47_96
*1591 FILLER_48_104
*1592 FILLER_48_116
*1593 FILLER_48_136
*1594 FILLER_48_14
*1595 FILLER_48_151
*1596 FILLER_48_163
*1597 FILLER_48_174
*1598 FILLER_48_182
*1599 FILLER_48_192
*1600 FILLER_48_205
*1601 FILLER_48_215
*1602 FILLER_48_223
*1603 FILLER_48_239
*1604 FILLER_48_251
*1605 FILLER_48_253
*1606 FILLER_48_26
*1607 FILLER_48_265
*1608 FILLER_48_277
*1609 FILLER_48_289
*1610 FILLER_48_29
*1611 FILLER_48_297
*1612 FILLER_48_3
*1613 FILLER_48_41
*1614 FILLER_48_50
*1615 FILLER_48_59
*1616 FILLER_48_69
*1617 FILLER_48_7
*1618 FILLER_48_80
*1619 FILLER_48_92
*1620 FILLER_49_107
*1621 FILLER_49_111
*1622 FILLER_49_123